networks/opendss/CKT_1835_19528.dss
! OpenDSS script generated from multiconductor network
Clear

New Circuit.mc_network basekv=12.0 pu=1.000000 angle=0.00 frequency=60.0 phases=3 Mvasc3=143993 Mvasc1=47997.6
~ bus1=-8888882181733.1.2.3

! Line codes
New LineCode.1/0_CLP_2PH_12KV_2 nphases=2 units=km Rmatrix=[ 0.045434 | 0 0.045434 ] Xmatrix=[ 0.013887 | 0 0.013887 ] Cmatrix=[ 0 | 0 0 ]
New LineCode.1/0_JCN_2PH_12KV_2 nphases=2 units=km Rmatrix=[ 0.07561 | 0 0.07561 ] Xmatrix=[ 0.02311 | 0 0.02311 ] Cmatrix=[ 0 | 0 0 ]
New LineCode.1000_JCN_3PH_12KV_3 nphases=3 units=km Rmatrix=[ 0.012574 | 0 0.012574 | 0 0 0.012574 ] Xmatrix=[ 0.019033 | 0 0.019033 | 0 0 0.019033 ] Cmatrix=[ 0 | 0 0 | 0 0 0 ]
New LineCode.350_JCN_3PH_12KV_3 nphases=3 units=km Rmatrix=[ 0.017918 | 0 0.017918 | 0 0 0.017918 ] Xmatrix=[ 0.013614 | 0 0.013614 | 0 0 0.013614 ] Cmatrix=[ 0 | 0 0 | 0 0 0 ]
New LineCode.336_ACSR_3PH_12KV_3 nphases=3 units=km Rmatrix=[ 0.021078 | 0 0.021078 | 0 0 0.021078 ] Xmatrix=[ 0.047201 | 0 0.047201 | 0 0 0.047201 ] Cmatrix=[ 0 | 0 0 | 0 0 0 ]
New LineCode.2_AL_2PH_12KV_2 nphases=2 units=km Rmatrix=[ 0.114401 | 0 0.114401 ] Xmatrix=[ 0.024114 | 0 0.024114 ] Cmatrix=[ 0 | 0 0 ]
New LineCode.2_CLP_2PH_12KV_2 nphases=2 units=km Rmatrix=[ 0.005085 | 0 0.005085 ] Xmatrix=[ 0.001072 | 0 0.001072 ] Cmatrix=[ 0 | 0 0 ]
New LineCode.2_CLP_3PH_12KV_3 nphases=3 units=km Rmatrix=[ 0.02499 | 0 0.02499 | 0 0 0.02499 ] Xmatrix=[ 0.005267 | 0 0.005267 | 0 0 0.005267 ] Cmatrix=[ 0 | 0 0 | 0 0 0 ]
New LineCode.1/0_ACSR_3PH_12KV_3 nphases=3 units=km Rmatrix=[ 0.018381 | 0 0.018381 | 0 0 0.018381 ] Xmatrix=[ 0.014635 | 0 0.014635 | 0 0 0.014635 ] Cmatrix=[ 0 | 0 0 | 0 0 0 ]
New LineCode.1/0_ATW_2PH_12KV_2 nphases=2 units=km Rmatrix=[ 1e-05 | 0 1e-05 ] Xmatrix=[ 1e-05 | 0 1e-05 ] Cmatrix=[ 0 | 0 0 ]
New LineCode.336_ATW_3PH_12KV_3 nphases=3 units=km Rmatrix=[ 1e-05 | 0 1e-05 | 0 0 1e-05 ] Xmatrix=[ 1e-05 | 0 1e-05 | 0 0 1e-05 ] Cmatrix=[ 0 | 0 0 | 0 0 0 ]
New LineCode.1/0_ATW_3PH_12KV_3 nphases=3 units=km Rmatrix=[ 1e-05 | 0 1e-05 | 0 0 1e-05 ] Xmatrix=[ 1e-05 | 0 1e-05 | 0 0 1e-05 ] Cmatrix=[ 0 | 0 0 | 0 0 0 ]
New LineCode.4_ACSR_2PH_12KV_2 nphases=2 units=km Rmatrix=[ 0.10342 | 0 0.10342 ] Xmatrix=[ 0.037949 | 0 0.037949 ] Cmatrix=[ 0 | 0 0 ]
New LineCode.4_ACSR_3PH_12KV_3 nphases=3 units=km Rmatrix=[ 0.027661 | 0 0.027661 | 0 0 0.027661 ] Xmatrix=[ 0.01015 | 0 0.01015 | 0 0 0.01015 ] Cmatrix=[ 0 | 0 0 | 0 0 0 ]
New LineCode.8_CU_3PH_12KV_3 nphases=3 units=km Rmatrix=[ 0.081684 | 0 0.081684 | 0 0 0.081684 ] Xmatrix=[ 0.028953 | 0 0.028953 | 0 0 0.028953 ] Cmatrix=[ 0 | 0 0 | 0 0 0 ]
New LineCode.2_ACSR_3PH_12KV_3 nphases=3 units=km Rmatrix=[ 0.004546 | 0 0.004546 | 0 0 0.004546 ] Xmatrix=[ 0.002444 | 0 0.002444 | 0 0 0.002444 ] Cmatrix=[ 0 | 0 0 | 0 0 0 ]
New LineCode.1/0_CU_3PH_12KV_3 nphases=3 units=km Rmatrix=[ 0.041885 | 0 0.041885 | 0 0 0.041885 ] Xmatrix=[ 0.052163 | 0 0.052163 | 0 0 0.052163 ] Cmatrix=[ 0 | 0 0 | 0 0 0 ]
New LineCode.6_CU_3PH_12KV_3 nphases=3 units=km Rmatrix=[ 0.114802 | 0 0.114802 | 0 0 0.114802 ] Xmatrix=[ 0.040693 | 0 0.040693 | 0 0 0.040693 ] Cmatrix=[ 0 | 0 0 | 0 0 0 ]
New LineCode.1/0_CU_2PH_12KV_2 nphases=2 units=km Rmatrix=[ 0.01636 | 0 0.01636 ] Xmatrix=[ 0.020375 | 0 0.020375 ] Cmatrix=[ 0 | 0 0 ]
New LineCode.2_CU_3PH_12KV_3 nphases=3 units=km Rmatrix=[ 0.078828 | 0 0.078828 | 0 0 0.078828 ] Xmatrix=[ 0.064105 | 0 0.064105 | 0 0 0.064105 ] Cmatrix=[ 0 | 0 0 | 0 0 0 ]
New LineCode.1/0_ACSR_2PH_12KV_2 nphases=2 units=km Rmatrix=[ 0.009535 | 0 0.009535 ] Xmatrix=[ 0.007591 | 0 0.007591 ] Cmatrix=[ 0 | 0 0 ]
New LineCode.1/0_ATW_3PH_12KV_2 nphases=2 units=km Rmatrix=[ 1e-05 | 0 1e-05 ] Xmatrix=[ 1e-05 | 0 1e-05 ] Cmatrix=[ 0 | 0 0 ]
New LineCode.336_ATW_2PH_12KV_2 nphases=2 units=km Rmatrix=[ 1e-05 | 0 1e-05 ] Xmatrix=[ 1e-05 | 0 1e-05 ] Cmatrix=[ 0 | 0 0 ]
New LineCode.350_CLP_3PH_12KV_3 nphases=3 units=km Rmatrix=[ 0.004426 | 0 0.004426 | 0 0 0.004426 ] Xmatrix=[ 0.003363 | 0 0.003363 | 0 0 0.003363 ] Cmatrix=[ 0 | 0 0 | 0 0 0 ]
New LineCode.1/0_CLP_3PH_12KV_3 nphases=3 units=km Rmatrix=[ 0.026409 | 0 0.026409 | 0 0 0.026409 ] Xmatrix=[ 0.008072 | 0 0.008072 | 0 0 0.008072 ] Cmatrix=[ 0 | 0 0 | 0 0 0 ]
New LineCode.350_CLP_2PH_12KV_2 nphases=2 units=km Rmatrix=[ 0.012602 | 0 0.012602 ] Xmatrix=[ 0.009575 | 0 0.009575 ] Cmatrix=[ 0 | 0 0 ]
New LineCode.1/0_JCN_3PH_12KV_3 nphases=3 units=km Rmatrix=[ 0.000952 | 0 0.000952 | 0 0 0.000952 ] Xmatrix=[ 0.000291 | 0 0.000291 | 0 0 0.000291 ] Cmatrix=[ 0 | 0 0 | 0 0 0 ]
New LineCode.6_CU_2PH_12KV_2 nphases=2 units=km Rmatrix=[ 0.003174 | 0 0.003174 ] Xmatrix=[ 0.001125 | 0 0.001125 ] Cmatrix=[ 0 | 0 0 ]

! Lines
New Line.POS1104-1$P5180127-A phases=2 Bus1=13019498.1.3 Bus2=13019547.1.3 LineCode=1/0_CLP_2PH_12KV_2 Length=0.069911 units=km
New Line.236336180$ND238130077 phases=2 Bus1=236336183.1.3 Bus2=238130077.1.3 LineCode=1/0_JCN_2PH_12KV_2 Length=0.007988 units=km
New Line.940209E$GS1131-2 phases=3 Bus1=202171046.1.2.3 Bus2=202171323.1.2.3 LineCode=1000_JCN_3PH_12KV_3 Length=0.148602 units=km
New Line.GS1132-1$GS1131-3 phases=3 Bus1=202171055.1.2.3 Bus2=202170897.1.2.3 LineCode=1000_JCN_3PH_12KV_3 Length=0.21257 units=km
New Line.PH443$PME1206-2 phases=3 Bus1=209843699.1.2.3 Bus2=209843752.1.2.3 LineCode=350_JCN_3PH_12KV_3 Length=0.080478 units=km
New Line.ND238130077$236336207 phases=2 Bus1=238130077.1.3 Bus2=236336210.1.3 LineCode=1/0_JCN_2PH_12KV_2 Length=0.007029 units=km
New Line.238130026$ND238130077 phases=2 Bus1=238130077.1.3 Bus2=238130029.1.3 LineCode=1/0_JCN_2PH_12KV_2 Length=0.007353 units=km
New Line.ND173214069$4780439E phases=3 Bus1=173214069.1.2.3 Bus2=173214048.1.2.3 LineCode=336_ACSR_3PH_12KV_3 Length=0.042174 units=km
New Line.4780439E$ND173214024 phases=3 Bus1=173214024.1.2.3 Bus2=258128613.1.2.3 LineCode=336_ACSR_3PH_12KV_3 Length=0.002534 units=km
New Line.ND206855117$PSCUST phases=3 Bus1=206855004.1.2.3 Bus2=206855053.1.2.3 LineCode=336_ACSR_3PH_12KV_3 Length=0.010633 units=km
New Line.P5180128-A$P5180127-B phases=2 Bus1=13019556.1.3 Bus2=13019633.1.3 LineCode=1/0_CLP_2PH_12KV_2 Length=0.220853 units=km
New Line.236336207$208462511 phases=2 Bus1=236336209.1.3 Bus2=208462513.1.3 LineCode=1/0_JCN_2PH_12KV_2 Length=0.127154 units=km
New Line.238130026$238129995 phases=2 Bus1=238130028.1.3 Bus2=238129997.1.3 LineCode=1/0_JCN_2PH_12KV_2 Length=0.179212 units=km
New Line.B5180152-1$4732299E phases=2 Bus1=13001296.1.3 Bus2=13022413.1.3 LineCode=2_AL_2PH_12KV_2 Length=0.122613 units=km
New Line.208462511$P5309173-2 phases=2 Bus1=208462514.1.3 Bus2=13022801.1.3 LineCode=1/0_JCN_2PH_12KV_2 Length=0.000751 units=km
New Line.238129995$P5708372-1 phases=2 Bus1=238129998.1.3 Bus2=238129954.1.3 LineCode=1/0_JCN_2PH_12KV_2 Length=0.002379 units=km
New Line.P5180129-A$P5180128-B phases=2 Bus1=13019624.1.3 Bus2=13019710.1.3 LineCode=1/0_CLP_2PH_12KV_2 Length=0.179766 units=km
New Line.188251183$4615300E phases=2 Bus1=102330703.1.3 Bus2=188251185.1.3 LineCode=2_CLP_2PH_12KV_2 Length=0.168562 units=km
New Line.188251183$P5590390-1 phases=2 Bus1=188251186.1.3 Bus2=102330751.1.3 LineCode=2_CLP_2PH_12KV_2 Length=0.004564 units=km
New Line.B5180152-2$B5180153-1 phases=2 Bus1=13022422.1.3 Bus2=12999643.1.3 LineCode=2_AL_2PH_12KV_2 Length=0.068333 units=km
New Line.ND98362733$4319904E phases=2 Bus1=13022228.1.3 Bus2=98362733.1.3 LineCode=1/0_CLP_2PH_12KV_2 Length=0.082428 units=km
New Line.P5180129-B$P5180130-A phases=2 Bus1=13019701.1.3 Bus2=13019787.1.3 LineCode=1/0_CLP_2PH_12KV_2 Length=0.184865 units=km
New Line.773519E$P5309072-1 phases=3 Bus1=13022143.1.2.3 Bus2=94881802.1.2.3 LineCode=2_CLP_3PH_12KV_3 Length=0.025004 units=km
New Line.P5309159-1$ND98362733 phases=2 Bus1=98362733.1.3 Bus2=13022244.1.3 LineCode=1/0_CLP_2PH_12KV_2 Length=0.162324 units=km
New Line.ND98362733$98362833 phases=2 Bus1=98362733.1.3 Bus2=98362835.1.3 LineCode=2_CLP_2PH_12KV_2 Length=0.100354 units=km
New Line.P5487014-1$98362833 phases=2 Bus1=98362836.1.3 Bus2=98362753.1.3 LineCode=2_CLP_2PH_12KV_2 Length=0.003496 units=km
New Line.P5309160-1$P5309159-2 phases=2 Bus1=13022253.1.3 Bus2=13022316.1.3 LineCode=1/0_CLP_2PH_12KV_2 Length=0.185217 units=km
New Line.B5180153-2$166499950 phases=2 Bus1=12999652.1.3 Bus2=166499952.1.3 LineCode=2_AL_2PH_12KV_2 Length=0.10228 units=km
New Line.BF53484$ND239502370 phases=3 Bus1=209948978.1.2.3 Bus2=239502370.1.2.3 LineCode=1/0_ACSR_3PH_12KV_3 Length=0.033485 units=km
New Line.166499950$P5604810-1 phases=2 Bus1=166499953.1.3 Bus2=12999715.1.3 LineCode=2_AL_2PH_12KV_2 Length=0.00085 units=km
New Line.4447808EP$107471471 phases=2 Bus1=107471434.1.3 Bus2=107471473.1.3 LineCode=2_CLP_2PH_12KV_2 Length=0.180438 units=km
New Line.ND235602969$1710844E phases=2 Bus1=235602969.1.3 Bus2=12986152.1.3 LineCode=1/0_ATW_2PH_12KV_2 Length=0.028746 units=km
New Line.ND13064585$ND239417657 phases=3 Bus1=13064585.1.2.3 Bus2=239417657.1.2.3 LineCode=336_ATW_3PH_12KV_3 Length=0.092597 units=km
New Line.ND239417632$ND173213922 phases=3 Bus1=239417632.1.2.3 Bus2=173213922.1.2.3 LineCode=336_ATW_3PH_12KV_3 Length=0.175685 units=km
New Line.ND173213922$PS0438 phases=3 Bus1=173213922.1.2.3 Bus2=173213931.1.2.3 LineCode=336_ATW_3PH_12KV_3 Length=0.036904 units=km
New Line.ND239739033$940381E phases=3 Bus1=239739033.1.2.3 Bus2=239739049.1.2.3 LineCode=1/0_ATW_3PH_12KV_3 Length=0.011969 units=km
New Line.1761197E$PS0955 phases=2 Bus1=12986102.1.3 Bus2=240155885.1.3 LineCode=1/0_ATW_2PH_12KV_2 Length=0.008689 units=km
New Line.PS0438$ND216181588 phases=3 Bus1=173213932.1.2.3 Bus2=216181588.1.2.3 LineCode=336_ATW_3PH_12KV_3 Length=0.005932 units=km
New Line.ND216181588$ND173214069 phases=3 Bus1=216181588.1.2.3 Bus2=173214069.1.2.3 LineCode=336_ATW_3PH_12KV_3 Length=0.087435 units=km
New Line.940381E$BF54213 phases=3 Bus1=239739050.1.2.3 Bus2=240049863.1.2.3 LineCode=1/0_ATW_3PH_12KV_3 Length=0.130448 units=km
New Line.ND173214069$ND173214024 phases=3 Bus1=173214069.1.2.3 Bus2=173214024.1.2.3 LineCode=336_ATW_3PH_12KV_3 Length=0.036419 units=km
New Line.BF54213$4970105E phases=3 Bus1=240049864.1.2.3 Bus2=239739072.1.2.3 LineCode=1/0_ATW_3PH_12KV_3 Length=0.186953 units=km
New Line.PSCUST$4780439E phases=3 Bus1=258128614.1.2.3 Bus2=206855003.1.2.3 LineCode=336_ATW_3PH_12KV_3 Length=0.005942 units=km
New Line.940336E$ND239417449 phases=3 Bus1=13021528.1.2.3 Bus2=239417449.1.2.3 LineCode=336_ATW_3PH_12KV_3 Length=0.168371 units=km
New Line.ND13030345$ND236245741 phases=3 Bus1=13030345.1.2.3 Bus2=236245741.1.2.3 LineCode=336_ATW_3PH_12KV_3 Length=0.151628 units=km
New Line.1828371E$BF53489 phases=2 Bus1=209948931.1.2 Bus2=13021984.1.2 LineCode=1/0_ATW_2PH_12KV_2 Length=0.125529 units=km
New Line.BF53454$ND235602969 phases=2 Bus1=209948372.1.3 Bus2=235602969.1.3 LineCode=4_ACSR_2PH_12KV_2 Length=0.015527 units=km
New Line.4606158E$4852734E phases=3 Bus1=12986470.1.2.3 Bus2=295283388.1.2.3 LineCode=1/0_ACSR_3PH_12KV_3 Length=0.108845 units=km
New Line.1536337E$BF53311 phases=2 Bus1=209948148.2.3 Bus2=12986339.2.3 LineCode=4_ACSR_2PH_12KV_2 Length=0.066702 units=km
New Line.2344367E$4379279E phases=2 Bus1=13022714.2.3 Bus2=12998343.2.3 LineCode=4_ACSR_2PH_12KV_2 Length=0.117624 units=km
New Line.4852734E$ND13031444 phases=3 Bus1=295283388.1.2.3 Bus2=13031444.1.2.3 LineCode=1/0_ACSR_3PH_12KV_3 Length=0.137341 units=km
New Line.BF53084$ND172426192 phases=3 Bus1=172426192.1.2.3 Bus2=144712239.1.2.3 LineCode=4_ACSR_3PH_12KV_3 Length=0.003483 units=km
New Line.ND13062767$1997086E phases=2 Bus1=13062767.2.3 Bus2=13022134.2.3 LineCode=4_ACSR_2PH_12KV_2 Length=0.07266 units=km
New Line.PS0995$ND239417657 phases=3 Bus1=239417657.1.2.3 Bus2=239417700.1.2.3 LineCode=336_ACSR_3PH_12KV_3 Length=0.010893 units=km
New Line.PH443$PS0995 phases=3 Bus1=239417701.1.2.3 Bus2=209843691.1.2.3 LineCode=336_ACSR_3PH_12KV_3 Length=0.006868 units=km
New Line.ND173213922$ND239739033 phases=3 Bus1=173213922.1.2.3 Bus2=239739033.1.2.3 LineCode=336_ACSR_3PH_12KV_3 Length=0.493227 units=km
New Line.ND239739033$4451277E phases=3 Bus1=239739033.1.2.3 Bus2=12970584.1.2.3 LineCode=336_ACSR_3PH_12KV_3 Length=0.718122 units=km
New Line.4451277E$1584462E phases=3 Bus1=12970584.1.2.3 Bus2=13021557.1.2.3 LineCode=336_ACSR_3PH_12KV_3 Length=0.18236 units=km
New Line.ND13031444$ND13031218 phases=3 Bus1=13031444.1.2.3 Bus2=13031218.1.2.3 LineCode=1/0_ACSR_3PH_12KV_3 Length=0.053328 units=km
New Line.ND13031444$BF53310 phases=2 Bus1=13031444.2.3 Bus2=209948093.2.3 LineCode=4_ACSR_2PH_12KV_2 Length=0.002946 units=km
New Line.1710973E$BF53515 phases=3 Bus1=220548498.1.2.3 Bus2=220548556.1.2.3 LineCode=4_ACSR_3PH_12KV_3 Length=0.005406 units=km
New Line.ND13031218$1828348E phases=3 Bus1=13031218.1.2.3 Bus2=12986391.1.2.3 LineCode=1/0_ACSR_3PH_12KV_3 Length=0.041792 units=km
New Line.ND198547073$1584462E phases=3 Bus1=13021557.1.2.3 Bus2=198547073.1.2.3 LineCode=336_ACSR_3PH_12KV_3 Length=0.258935 units=km
New Line.PS0614$ND198547073 phases=3 Bus1=198547073.1.2.3 Bus2=13028866.1.2.3 LineCode=336_ACSR_3PH_12KV_3 Length=0.005726 units=km
New Line.PS0614$ND13031676 phases=3 Bus1=13028865.1.2.3 Bus2=13031676.1.2.3 LineCode=336_ACSR_3PH_12KV_3 Length=0.280371 units=km
New Line.ND13031218$BF53307 phases=3 Bus1=13031218.1.2.3 Bus2=209948040.1.2.3 LineCode=4_ACSR_3PH_12KV_3 Length=0.061426 units=km
New Line.2344492E$ND13031676 phases=3 Bus1=13031676.1.2.3 Bus2=13029781.1.2.3 LineCode=336_ACSR_3PH_12KV_3 Length=0.020794 units=km
New Line.2344492E$4451279E phases=3 Bus1=13029782.1.2.3 Bus2=12970816.1.2.3 LineCode=336_ACSR_3PH_12KV_3 Length=0.120233 units=km
New Line.4451279E$ND13030473 phases=3 Bus1=12970816.1.2.3 Bus2=13030473.1.2.3 LineCode=336_ACSR_3PH_12KV_3 Length=0.156313 units=km
New Line.4605402E$ND13030473 phases=3 Bus1=13030473.1.2.3 Bus2=147886198.1.2.3 LineCode=336_ACSR_3PH_12KV_3 Length=0.293106 units=km
New Line.BF53310$1902769E phases=2 Bus1=209948094.2.3 Bus2=12986443.2.3 LineCode=4_ACSR_2PH_12KV_2 Length=0.030514 units=km
New Line.4605402E$940355E phases=3 Bus1=147886198.1.2.3 Bus2=12970642.1.2.3 LineCode=336_ACSR_3PH_12KV_3 Length=0.127223 units=km
New Line.940355E$940349E phases=3 Bus1=12970642.1.2.3 Bus2=12970700.1.2.3 LineCode=336_ACSR_3PH_12KV_3 Length=0.20974 units=km
New Line.1019049E$4091366E phases=2 Bus1=12970868.1.3 Bus2=12970843.1.3 LineCode=4_ACSR_2PH_12KV_2 Length=0.055937 units=km
New Line.940349E$4403820E phases=3 Bus1=12970700.1.2.3 Bus2=168644066.1.2.3 LineCode=336_ACSR_3PH_12KV_3 Length=0.136803 units=km
New Line.ND13031849$ND239417449 phases=3 Bus1=239417449.1.2.3 Bus2=13031849.1.2.3 LineCode=336_ACSR_3PH_12KV_3 Length=0.112864 units=km
New Line.4732299E$PS0955 phases=2 Bus1=240155884.1.3 Bus2=13001295.1.3 LineCode=4_ACSR_2PH_12KV_2 Length=0.007187 units=km
New Line.1828348E$ND13030513 phases=3 Bus1=12986391.1.2.3 Bus2=13030513.1.2.3 LineCode=1/0_ACSR_3PH_12KV_3 Length=0.069997 units=km
New Line.BF53307$4180811E phases=3 Bus1=209948041.1.2.3 Bus2=12986418.1.2.3 LineCode=4_ACSR_3PH_12KV_3 Length=0.041544 units=km
New Line.ND13030513$ND13030514 phases=3 Bus1=13030513.1.2.3 Bus2=13030514.1.2.3 LineCode=8_CU_3PH_12KV_3 Length=0.341543 units=km
New Line.ND13030513$BF53309 phases=2 Bus1=13030513.2.3 Bus2=209947994.2.3 LineCode=4_ACSR_2PH_12KV_2 Length=0.061878 units=km
New Line.ND13030514$934678E phases=3 Bus1=13030514.1.2.3 Bus2=12986499.1.2.3 LineCode=8_CU_3PH_12KV_3 Length=0.197649 units=km
New Line.4180811E$4782654E phases=3 Bus1=12986418.1.2.3 Bus2=13001008.1.2.3 LineCode=4_ACSR_3PH_12KV_3 Length=0.036008 units=km
New Line.940306ET$ND13063480 phases=3 Bus1=13063480.1.2.3 Bus2=13029761.1.2.3 LineCode=2_ACSR_3PH_12KV_3 Length=0.002441 units=km
New Line.940305E$ND13030245 phases=3 Bus1=72166879.1.2.3 Bus2=13030245.1.2.3 LineCode=336_ACSR_3PH_12KV_3 Length=0.003468 units=km
New Line.2261233E$BF53309 phases=2 Bus1=209947995.2.3 Bus2=12986364.2.3 LineCode=4_ACSR_2PH_12KV_2 Length=0.104069 units=km
New Line.940306ET$940306E phases=3 Bus1=13029762.1.2.3 Bus2=13021272.1.2.3 LineCode=2_ACSR_3PH_12KV_3 Length=0.005781 units=km
New Line.ND13062676$2072231E phases=3 Bus1=13062676.1.2.3 Bus2=12971971.1.2.3 LineCode=4_ACSR_3PH_12KV_3 Length=0.074332 units=km
New Line.934678E$ND173105801 phases=3 Bus1=12986499.1.2.3 Bus2=173105801.1.2.3 LineCode=8_CU_3PH_12KV_3 Length=0.054891 units=km
New Line.940306E$ND13031790 phases=3 Bus1=13021272.1.2.3 Bus2=13031790.1.2.3 LineCode=2_ACSR_3PH_12KV_3 Length=0.159219 units=km
New Line.2072231E$2072230E phases=3 Bus1=12971971.1.2.3 Bus2=12971996.1.2.3 LineCode=4_ACSR_3PH_12KV_3 Length=0.087848 units=km
New Line.ND13031790$1284653E phases=3 Bus1=13031790.1.2.3 Bus2=12972125.1.2.3 LineCode=1/0_CU_3PH_12KV_3 Length=0.103122 units=km
New Line.ND13062973$1536383E phases=2 Bus1=13062973.2.3 Bus2=13021422.2.3 LineCode=4_ACSR_2PH_12KV_2 Length=0.001254 units=km
New Line.ND13031790$70899CTC phases=3 Bus1=13031790.1.2.3 Bus2=13028488.1.2.3 LineCode=4_ACSR_3PH_12KV_3 Length=0.024277 units=km
New Line.70899CTC$1293832E phases=3 Bus1=13028488.1.2.3 Bus2=13021297.1.2.3 LineCode=4_ACSR_3PH_12KV_3 Length=0.04493 units=km
New Line.1284653E$1284652E phases=3 Bus1=12972125.1.2.3 Bus2=13021322.1.2.3 LineCode=1/0_CU_3PH_12KV_3 Length=0.077963 units=km
New Line.ND13030045$2164615E phases=2 Bus1=13030045.1.2 Bus2=13023278.1.2 LineCode=4_ACSR_2PH_12KV_2 Length=0.039625 units=km
New Line.2344495E$ND236245741 phases=3 Bus1=236245741.1.2.3 Bus2=95511876.1.2.3 LineCode=336_ACSR_3PH_12KV_3 Length=0.206624 units=km
New Line.773521E$773522E phases=3 Bus1=12988513.1.2.3 Bus2=12988538.1.2.3 LineCode=6_CU_3PH_12KV_3 Length=0.065344 units=km
New Line.1293832E$1293834E phases=3 Bus1=13021297.1.2.3 Bus2=12985091.1.2.3 LineCode=4_ACSR_3PH_12KV_3 Length=0.118901 units=km
New Line.2344495E$ND13030396 phases=3 Bus1=95511876.1.2.3 Bus2=13030396.1.2.3 LineCode=336_ACSR_3PH_12KV_3 Length=0.165292 units=km
New Line.1284652E$ND13031335 phases=3 Bus1=13021322.1.2.3 Bus2=13031335.1.2.3 LineCode=1/0_CU_3PH_12KV_3 Length=0.029628 units=km
New Line.ND13031335$1584125ET phases=3 Bus1=13029772.1.2.3 Bus2=13031335.1.2.3 LineCode=1/0_CU_3PH_12KV_3 Length=0.083233 units=km
New Line.ND173105801$ND13063322 phases=3 Bus1=173105801.1.2.3 Bus2=13063322.1.2.3 LineCode=8_CU_3PH_12KV_3 Length=0.203257 units=km
New Line.1293834E$2063207E phases=3 Bus1=12985091.1.2.3 Bus2=12985116.1.2.3 LineCode=4_ACSR_3PH_12KV_3 Length=0.048053 units=km
New Line.ND13031335$4082510E phases=2 Bus1=13031335.2.3 Bus2=13021347.2.3 LineCode=1/0_CU_2PH_12KV_2 Length=0.047942 units=km
New Line.ND13030396$ND13031285 phases=3 Bus1=13030396.1.2.3 Bus2=13031285.1.2.3 LineCode=336_ACSR_3PH_12KV_3 Length=0.278288 units=km
New Line.ND13030396$ND141913981 phases=3 Bus1=13030396.1.2.3 Bus2=141913915.1.2.3 LineCode=336_ACSR_3PH_12KV_3 Length=0.118373 units=km
New Line.1400814E$1584347E phases=3 Bus1=12998164.1.2.3 Bus2=12998139.1.2.3 LineCode=1/0_ACSR_3PH_12KV_3 Length=0.02886 units=km
New Line.ND13063322$ND13031613 phases=3 Bus1=13063322.1.2.3 Bus2=13031613.1.2.3 LineCode=8_CU_3PH_12KV_3 Length=0.105385 units=km
New Line.ND13030396$BF53467 phases=3 Bus1=13030396.1.2.3 Bus2=279370334.1.2.3 LineCode=4_ACSR_3PH_12KV_3 Length=0.078222 units=km
New Line.2063207E$4566710E phases=3 Bus1=12985116.1.2.3 Bus2=13021143.1.2.3 LineCode=4_ACSR_3PH_12KV_3 Length=0.033241 units=km
New Line.2299321E$ND13031285 phases=2 Bus1=13031285.1.2 Bus2=13029113.1.2 LineCode=4_ACSR_2PH_12KV_2 Length=0.00295 units=km
New Line.ND13031285$ND237647560 phases=3 Bus1=13031285.1.2.3 Bus2=237647560.1.2.3 LineCode=336_ACSR_3PH_12KV_3 Length=0.043194 units=km
New Line.4180462E$ND237647560 phases=3 Bus1=237647560.1.2.3 Bus2=12985480.1.2.3 LineCode=336_ACSR_3PH_12KV_3 Length=0.075434 units=km
New Line.1442035E$4566710E phases=3 Bus1=13021143.1.2.3 Bus2=13021118.1.2.3 LineCode=4_ACSR_3PH_12KV_3 Length=0.03672 units=km
New Line.BF53308$ND13063322 phases=3 Bus1=13063322.1.2.3 Bus2=209947761.1.2.3 LineCode=4_ACSR_3PH_12KV_3 Length=0.005061 units=km
New Line.ND13031613$ND173105845 phases=3 Bus1=13031613.1.2.3 Bus2=173105845.1.2.3 LineCode=1/0_ACSR_3PH_12KV_3 Length=0.215746 units=km
New Line.BF53449$ND209948723 phases=2 Bus1=209948681.1.3 Bus2=209948723.1.3 LineCode=4_ACSR_2PH_12KV_2 Length=0.005219 units=km
New Line.ND173105845$4546391E phases=3 Bus1=173105845.1.2.3 Bus2=12986803.1.2.3 LineCode=1/0_ACSR_3PH_12KV_3 Length=0.087551 units=km
New Line.ND209947812$BF53308 phases=3 Bus1=209947762.1.2.3 Bus2=209947812.1.2.3 LineCode=4_ACSR_3PH_12KV_3 Length=0.005394 units=km
New Line.1902895E$ND209947812 phases=3 Bus1=209947812.1.2.3 Bus2=12986676.1.2.3 LineCode=4_ACSR_3PH_12KV_3 Length=0.020663 units=km
New Line.1849770E$ND209947812 phases=3 Bus1=209947812.1.2.3 Bus2=13000933.1.2.3 LineCode=4_ACSR_3PH_12KV_3 Length=0.119789 units=km
New Line.1710806E$ND13063030 phases=2 Bus1=13063030.2.3 Bus2=264479763.2.3 LineCode=4_ACSR_2PH_12KV_2 Length=0.016197 units=km
New Line.4679893E$BF53467 phases=3 Bus1=279370335.1.2.3 Bus2=99106055.1.2.3 LineCode=4_ACSR_3PH_12KV_3 Length=0.042432 units=km
New Line.1584544E$1442035E phases=2 Bus1=13021118.1.2 Bus2=12985141.1.2 LineCode=4_ACSR_2PH_12KV_2 Length=0.093631 units=km
New Line.2299321E$1617436E phases=2 Bus1=13029112.1.2 Bus2=12985424.1.2 LineCode=4_ACSR_2PH_12KV_2 Length=0.036264 units=km
New Line.4180462E$ND13030742 phases=3 Bus1=12985480.1.2.3 Bus2=13030742.1.2.3 LineCode=336_ACSR_3PH_12KV_3 Length=0.051969 units=km
New Line.4679893E$4614534E phases=3 Bus1=99106055.1.2.3 Bus2=94904924.1.2.3 LineCode=4_ACSR_3PH_12KV_3 Length=0.038898 units=km
New Line.721440E$ND141913979 phases=3 Bus1=141913933.1.2.3 Bus2=12985451.1.2.3 LineCode=336_ACSR_3PH_12KV_3 Length=0.090369 units=km
New Line.4614534E$1349463E phases=3 Bus1=94904924.1.2.3 Bus2=13023081.1.2.3 LineCode=4_ACSR_3PH_12KV_3 Length=0.042787 units=km
New Line.4451285E$ND13030742 phases=2 Bus1=13030742.1.3 Bus2=13029126.1.3 LineCode=4_ACSR_2PH_12KV_2 Length=0.002435 units=km
New Line.ND13030742$ND13030283 phases=3 Bus1=13030742.1.2.3 Bus2=13030283.1.2.3 LineCode=336_ACSR_3PH_12KV_3 Length=0.059238 units=km
New Line.ND13030283$ND13030252 phases=3 Bus1=13030283.1.2.3 Bus2=13030252.1.2.3 LineCode=2_CU_3PH_12KV_3 Length=0.067125 units=km
New Line.ND13030537$ND13032190 phases=2 Bus1=13032190.1.2 Bus2=13030537.1.2 LineCode=1/0_ACSR_2PH_12KV_2 Length=0.144741 units=km
New Line.721440E$ND13032000 phases=3 Bus1=12985451.1.2.3 Bus2=13032000.1.2.3 LineCode=336_ACSR_3PH_12KV_3 Length=0.113027 units=km
New Line.4546391E$ND13030631 phases=3 Bus1=12986803.1.2.3 Bus2=13030631.1.2.3 LineCode=1/0_ACSR_3PH_12KV_3 Length=0.085418 units=km
New Line.1849770E$4781883E phases=3 Bus1=13000933.1.2.3 Bus2=13000958.1.2.3 LineCode=4_ACSR_3PH_12KV_3 Length=0.059556 units=km
New Line.ND13030631$ND13062614 phases=3 Bus1=13030631.1.2.3 Bus2=13062614.1.2.3 LineCode=1/0_ACSR_3PH_12KV_3 Length=0.10488 units=km
New Line.ND13030631$BF53306 phases=2 Bus1=13030631.1.3 Bus2=209947697.1.3 LineCode=4_ACSR_2PH_12KV_2 Length=0.008406 units=km
New Line.1349463E$ND13032208 phases=3 Bus1=13023081.1.2.3 Bus2=13032208.1.2.3 LineCode=4_ACSR_3PH_12KV_3 Length=0.036406 units=km
New Line.BF53484$ND13032190 phases=3 Bus1=13032190.1.2.3 Bus2=209948977.1.2.3 LineCode=1/0_ACSR_3PH_12KV_3 Length=0.004082 units=km
New Line.ND13030252$4451141E phases=3 Bus1=13030252.1.2.3 Bus2=12985863.1.2.3 LineCode=2_CU_3PH_12KV_3 Length=0.131243 units=km
New Line.4451285E$940295E phases=2 Bus1=13029125.1.3 Bus2=13001654.1.3 LineCode=4_ACSR_2PH_12KV_2 Length=0.016575 units=km
New Line.ND13032208$4038248E phases=2 Bus1=13032208.2.3 Bus2=13023106.2.3 LineCode=4_ACSR_2PH_12KV_2 Length=0.02596 units=km
New Line.ND13032000$4180838E phases=3 Bus1=13032000.1.2.3 Bus2=13023563.1.2.3 LineCode=336_ACSR_3PH_12KV_3 Length=0.077789 units=km
New Line.BF53471$ND13030252 phases=3 Bus1=13030252.1.2.3 Bus2=255942189.1.2.3 LineCode=4_ACSR_3PH_12KV_3 Length=0.005769 units=km
New Line.4180838E$721438E phases=3 Bus1=13023563.1.2.3 Bus2=12985343.1.2.3 LineCode=336_ACSR_3PH_12KV_3 Length=0.043688 units=km
New Line.4038248E$4038249E phases=2 Bus1=13023106.2.3 Bus2=12985399.2.3 LineCode=4_ACSR_2PH_12KV_2 Length=0.04637 units=km
New Line.940295E$1368983E phases=2 Bus1=13001654.1.3 Bus2=12985582.1.3 LineCode=4_ACSR_2PH_12KV_2 Length=0.02138 units=km
New Line.4451141E$ND246501480 phases=3 Bus1=12985863.1.2.3 Bus2=246501414.1.2.3 LineCode=2_CU_3PH_12KV_3 Length=0.112592 units=km
New Line.2331689E$2331690E phases=2 Bus1=13021472.2.3 Bus2=70654223.2.3 LineCode=4_ACSR_2PH_12KV_2 Length=0.03928 units=km
New Line.1368983E$1368984E phases=2 Bus1=12985582.1.3 Bus2=12985557.1.3 LineCode=4_ACSR_2PH_12KV_2 Length=0.065548 units=km
New Line.4379277E$BF53471 phases=3 Bus1=255942190.1.2.3 Bus2=13022739.1.2.3 LineCode=4_ACSR_3PH_12KV_3 Length=0.147007 units=km
New Line.721438E$ND13062404 phases=3 Bus1=12985343.1.2.3 Bus2=13062404.1.2.3 LineCode=336_ACSR_3PH_12KV_3 Length=0.120342 units=km
New Line.ND13062614$1170393CTC phases=3 Bus1=13062614.1.2.3 Bus2=13000156.1.2.3 LineCode=1/0_ACSR_3PH_12KV_3 Length=0.147182 units=km
New Line.4781883E$4090976E phases=2 Bus1=13000958.1.2 Bus2=13000983.1.2 LineCode=4_ACSR_2PH_12KV_2 Length=0.063004 units=km
New Line.4379277E$4180837E phases=3 Bus1=13022739.1.2.3 Bus2=13001679.1.2.3 LineCode=4_ACSR_3PH_12KV_3 Length=0.050084 units=km
New Line.2275341ET1$ND13062404 phases=3 Bus1=13062404.1.2.3 Bus2=13029035.1.2.3 LineCode=336_ACSR_3PH_12KV_3 Length=0.006013 units=km
New Line.1368984E$ND13064928 phases=2 Bus1=12985557.1.3 Bus2=13064928.1.3 LineCode=4_ACSR_2PH_12KV_2 Length=0.059053 units=km
New Line.BF53305$ND13062614 phases=3 Bus1=13062614.1.2.3 Bus2=209947643.1.2.3 LineCode=1/0_ACSR_3PH_12KV_3 Length=0.006607 units=km
New Line.ND13064928$4091299E phases=2 Bus1=13064928.1.3 Bus2=12985507.1.3 LineCode=4_ACSR_2PH_12KV_2 Length=0.02981 units=km
New Line.ND13064928$1494160E phases=2 Bus1=13064928.1.3 Bus2=12985532.1.3 LineCode=4_ACSR_2PH_12KV_2 Length=0.114502 units=km
New Line.1799284E$BF53306 phases=2 Bus1=209947698.1.3 Bus2=12986830.1.3 LineCode=4_ACSR_2PH_12KV_2 Length=0.051794 units=km
New Line.4451140E$ND246501478 phases=3 Bus1=246501432.1.2.3 Bus2=12985892.1.2.3 LineCode=2_CU_3PH_12KV_3 Length=0.065922 units=km
New Line.2275341ET1$BF53474 phases=3 Bus1=13029036.1.2.3 Bus2=240962153.1.2.3 LineCode=336_ACSR_3PH_12KV_3 Length=0.107136 units=km
New Line.4779154E$ND13030710 phases=3 Bus1=13020301.1.2.3 Bus2=13030710.1.2.3 LineCode=4_ACSR_3PH_12KV_3 Length=0.022293 units=km
New Line.1170393CTC$ND13062842 phases=3 Bus1=13000156.1.2.3 Bus2=13062842.1.2.3 LineCode=1/0_ACSR_3PH_12KV_3 Length=0.047391 units=km
New Line.4451140E$ND13030210 phases=3 Bus1=12985892.1.2.3 Bus2=13030210.1.2.3 LineCode=2_CU_3PH_12KV_3 Length=0.030742 units=km
New Line.ND13063972$1584510E phases=2 Bus1=13063972.2.3 Bus2=12998630.2.3 LineCode=4_ACSR_2PH_12KV_2 Length=0.060521 units=km
New Line.ND13063972$1584301E phases=2 Bus1=13063972.2.3 Bus2=12998655.2.3 LineCode=4_ACSR_2PH_12KV_2 Length=0.066935 units=km
New Line.4553027E$ND13030210 phases=3 Bus1=13030210.1.2.3 Bus2=13029374.1.2.3 LineCode=1/0_ACSR_3PH_12KV_3 Length=0.00706 units=km
New Line.ND13030210$940287E phases=3 Bus1=13030210.1.2.3 Bus2=13031637.1.2.3 LineCode=2_CU_3PH_12KV_3 Length=0.030332 units=km
New Line.BF53474$2261453ET1 phases=3 Bus1=240962154.1.2.3 Bus2=240962192.1.2.3 LineCode=336_ACSR_3PH_12KV_3 Length=0.001455 units=km
New Line.940287E$ND165873042 phases=3 Bus1=13031637.1.2.3 Bus2=165872976.1.2.3 LineCode=2_CU_3PH_12KV_3 Length=0.040714 units=km
New Line.BF53531$ND242211143 phases=2 Bus1=242211143.1.3 Bus2=209810570.1.3 LineCode=4_ACSR_2PH_12KV_2 Length=0.003965 units=km
New Line.BF53386$1902811E phases=2 Bus1=209947844.1.2 Bus2=12986701.1.2 LineCode=4_ACSR_2PH_12KV_2 Length=0.043907 units=km
New Line.ND13063666$1902965E phases=2 Bus1=13063666.1.2 Bus2=12971163.1.2 LineCode=4_ACSR_2PH_12KV_2 Length=0.002033 units=km
New Line.2261453ET1$ND13030841 phases=3 Bus1=240962193.1.2.3 Bus2=13030841.1.2.3 LineCode=336_ACSR_3PH_12KV_3 Length=0.003585 units=km
New Line.ND13066541$ND13063117 phases=2 Bus1=13066541.1.2 Bus2=13063117.1.2 LineCode=4_ACSR_2PH_12KV_2 Length=0.044871 units=km
New Line.ND13064152$BF53465 phases=3 Bus1=13064152.1.2.3 Bus2=238909676.1.2.3 LineCode=4_ACSR_3PH_12KV_3 Length=0.00331 units=km
New Line.4553027E$ND70654073 phases=3 Bus1=13029375.1.2.3 Bus2=70654073.1.2.3 LineCode=1/0_ACSR_3PH_12KV_3 Length=0.08355 units=km
New Line.1710857E$BF53305 phases=3 Bus1=209947644.1.2.3 Bus2=13000183.1.2.3 LineCode=1/0_ACSR_3PH_12KV_3 Length=0.012205 units=km
New Line.ND13062842$ND13029844 phases=3 Bus1=13062842.1.2.3 Bus2=13029844.1.2.3 LineCode=1/0_ACSR_3PH_12KV_3 Length=0.060288 units=km
New Line.BF53304$ND13062842 phases=3 Bus1=13062842.1.2.3 Bus2=209947594.1.2.3 LineCode=1/0_ACSR_3PH_12KV_3 Length=0.003607 units=km
New Line.ND13030841$1494434E phases=3 Bus1=13030841.1.2.3 Bus2=12985291.1.2.3 LineCode=336_ACSR_3PH_12KV_3 Length=0.014421 units=km
New Line.ND13030841$1494432E phases=3 Bus1=13030841.1.2.3 Bus2=13028253.1.2.3 LineCode=4_ACSR_3PH_12KV_3 Length=0.12924 units=km
New Line.ND13031638$ND70654073 phases=3 Bus1=70654073.1.2.3 Bus2=13031638.1.2.3 LineCode=1/0_ACSR_3PH_12KV_3 Length=0.060481 units=km
New Line.4447824E$BF53531 phases=2 Bus1=209810571.1.3 Bus2=137515478.1.3 LineCode=4_ACSR_2PH_12KV_2 Length=0.024203 units=km
New Line.ND70654073$ND70654054 phases=3 Bus1=70654073.1.2.3 Bus2=70654054.1.2.3 LineCode=1/0_ACSR_3PH_12KV_3 Length=0.006989 units=km
New Line.1494434E$1584133E phases=3 Bus1=12985291.1.2.3 Bus2=12985266.1.2.3 LineCode=336_ACSR_3PH_12KV_3 Length=0.110767 units=km
New Line.ND13031638$PS0695 phases=3 Bus1=13031638.1.2.3 Bus2=13029341.1.2.3 LineCode=1/0_ACSR_3PH_12KV_3 Length=0.041026 units=km
New Line.1316973E$ND13031638 phases=2 Bus1=13031638.1.3 Bus2=13029362.1.3 LineCode=4_ACSR_2PH_12KV_2 Length=0.057831 units=km
New Line.BF53455$ND70654054 phases=3 Bus1=70654054.1.2.3 Bus2=209948743.1.2.3 LineCode=1/0_ACSR_3PH_12KV_3 Length=0.051926 units=km
New Line.ND13029844$1761167E phases=3 Bus1=13029844.1.2.3 Bus2=12986626.1.2.3 LineCode=4_ACSR_3PH_12KV_3 Length=0.108565 units=km
New Line.1710857E$1710858E phases=3 Bus1=13000183.1.2.3 Bus2=12986855.1.2.3 LineCode=1/0_ACSR_3PH_12KV_3 Length=0.099974 units=km
New Line.BF53465$ND238909719 phases=3 Bus1=238909677.1.2.3 Bus2=238909719.1.2.3 LineCode=4_ACSR_3PH_12KV_3 Length=0.002731 units=km
New Line.1584133E$1584137E phases=3 Bus1=12985266.1.2.3 Bus2=12985241.1.2.3 LineCode=336_ACSR_3PH_12KV_3 Length=0.038868 units=km
New Line.ND238909719$4615273E phases=3 Bus1=238909719.1.2.3 Bus2=12985786.1.2.3 LineCode=4_ACSR_3PH_12KV_3 Length=0.017954 units=km
New Line.1999671E$ND238909719 phases=2 Bus1=238909719.2.3 Bus2=12985811.2.3 LineCode=4_ACSR_2PH_12KV_2 Length=0.035052 units=km
...

! Switches
New Line.5180130:P5180130-B phases=3 Bus1=13019779.1.2.3 Bus2=-77777713019779.1.2.3 switch=y r1=0.001 x1=0.001 r0=0.001 x0=0.001 Length=0.001 units=km enabled=false
New Line.940381E:940381E phases=3 Bus1=239739049.1.2.3 Bus2=239739050.1.2.3 switch=y r1=0.001 x1=0.001 r0=0.001 x0=0.001 Length=0.001 units=km
New Line.1317021E:1317021E phases=3 Bus1=13029572.1.2.3 Bus2=13029571.1.2.3 switch=y r1=0.001 x1=0.001 r0=0.001 x0=0.001 Length=0.001 units=km
New Line.4780439E:4780439E phases=3 Bus1=258128613.1.2.3 Bus2=258128614.1.2.3 switch=y r1=0.001 x1=0.001 r0=0.001 x0=0.001 Length=0.001 units=km
New Line.1317022E:1317022E phases=3 Bus1=13029559.1.2.3 Bus2=13029558.1.2.3 switch=y r1=0.001 x1=0.001 r0=0.001 x0=0.001 Length=0.001 units=km
New Line.4091290E:4091290E phases=2 Bus1=13028986.1.2 Bus2=13028987.1.2 switch=y r1=0.001 x1=0.001 r0=0.001 x0=0.001 Length=0.001 units=km
New Line.934675E:934675E phases=2 Bus1=13029326.1.2 Bus2=13029327.1.2 switch=y r1=0.001 x1=0.001 r0=0.001 x0=0.001 Length=0.001 units=km
New Line.2299321E:2299321E phases=2 Bus1=13029113.1.2 Bus2=13029112.1.2 switch=y r1=0.001 x1=0.001 r0=0.001 x0=0.001 Length=0.001 units=km
New Line.4451285E:4451285E phases=2 Bus1=13029126.1.3 Bus2=13029125.1.3 switch=y r1=0.001 x1=0.001 r0=0.001 x0=0.001 Length=0.001 units=km
New Line.2275341E:2275341ET1 phases=3 Bus1=13029035.1.2.3 Bus2=13029036.1.2.3 switch=y r1=0.001 x1=0.001 r0=0.001 x0=0.001 Length=0.001 units=km
New Line.2275341E:2275341E phases=3 Bus1=13029077.1.2.3 Bus2=13029076.1.2.3 switch=y r1=0.001 x1=0.001 r0=0.001 x0=0.001 Length=0.001 units=km
New Line.4553027E:4553027E phases=3 Bus1=13029374.1.2.3 Bus2=13029375.1.2.3 switch=y r1=0.001 x1=0.001 r0=0.001 x0=0.001 Length=0.001 units=km
New Line.2261453E:2261453ET1 phases=3 Bus1=240962192.1.2.3 Bus2=240962193.1.2.3 switch=y r1=0.001 x1=0.001 r0=0.001 x0=0.001 Length=0.001 units=km
New Line.1316973E:1316973E phases=2 Bus1=13029362.1.3 Bus2=13029361.1.3 switch=y r1=0.001 x1=0.001 r0=0.001 x0=0.001 Length=0.001 units=km
New Line.1761178E:1761178E phases=2 Bus1=218143632.2.3 Bus2=218143633.2.3 switch=y r1=0.001 x1=0.001 r0=0.001 x0=0.001 Length=0.001 units=km
New Line.1761301E:1761301E phases=3 Bus1=13029507.1.2.3 Bus2=13029508.1.2.3 switch=y r1=0.001 x1=0.001 r0=0.001 x0=0.001 Length=0.001 units=km
New Line.934599E:934599ET1 phases=3 Bus1=13029190.1.2.3 Bus2=13029189.1.2.3 switch=y r1=0.001 x1=0.001 r0=0.001 x0=0.001 Length=0.001 units=km
New Line.934599E:934599E phases=3 Bus1=13029199.1.2.3 Bus2=13029200.1.2.3 switch=y r1=0.001 x1=0.001 r0=0.001 x0=0.001 Length=0.001 units=km
New Line.70128E:70128E phases=2 Bus1=13029702.2.3 Bus2=13029703.2.3 switch=y r1=0.001 x1=0.001 r0=0.001 x0=0.001 Length=0.001 units=km
New Line.1349336E:1349336E phases=3 Bus1=13029884.1.2.3 Bus2=13029883.1.2.3 switch=y r1=0.001 x1=0.001 r0=0.001 x0=0.001 Length=0.001 units=km
New Line.N1242533:N1242533 phases=3 Bus1=13029467.1.2.3 Bus2=13029468.1.2.3 switch=y r1=0.001 x1=0.001 r0=0.001 x0=0.001 Length=0.001 units=km enabled=false
New Line.2123622E:2123622E phases=2 Bus1=158036786.1.2 Bus2=158036787.1.2 switch=y r1=0.001 x1=0.001 r0=0.001 x0=0.001 Length=0.001 units=km
New Line.1999935E:1999935E phases=2 Bus1=13029481.2.3 Bus2=13029480.2.3 switch=y r1=0.001 x1=0.001 r0=0.001 x0=0.001 Length=0.001 units=km
New Line.1584125E:1584125ET phases=3 Bus1=13029771.1.2.3 Bus2=13029772.1.2.3 switch=y r1=0.001 x1=0.001 r0=0.001 x0=0.001 Length=0.001 units=km enabled=false
New Line.1078739E:1078739EOT phases=3 Bus1=13029752.1.2.3 Bus2=13029751.1.2.3 switch=y r1=0.001 x1=0.001 r0=0.001 x0=0.001 Length=0.001 units=km enabled=false
New Line.1584386E:1584386ET1 phases=2 Bus1=13029520.2.3 Bus2=13029521.2.3 switch=y r1=0.001 x1=0.001 r0=0.001 x0=0.001 Length=0.001 units=km
New Line.MUSTANG$TUNGSTEN_PS0694$PS0694 phases=3 Bus1=13028831.1.2.3 Bus2=-77777713028831.1.2.3 switch=y r1=0.001 x1=0.001 r0=0.001 x0=0.001 Length=0.001 units=km
New Line.236336180 phases=2 Bus1=236336182.1.3 Bus2=236336183.1.3 switch=y r1=0.001 x1=0.001 r0=0.001 x0=0.001 Length=0.001 units=km
New Line.PDRSR0601-B$RSR0601 phases=3 Bus1=242242166.1.2.3 Bus2=242242159.1.2.3 switch=y r1=0.001 x1=0.001 r0=0.001 x0=0.001 Length=0.001 units=km
New Line.242242221$PDRSR0601-C phases=3 Bus1=242242196.1.2.3 Bus2=242242195.1.2.3 switch=y r1=0.001 x1=0.001 r0=0.001 x0=0.001 Length=0.001 units=km
New Line.242242221$PDRSR0601-D phases=3 Bus1=242242195.1.2.3 Bus2=242242171.1.2.3 switch=y r1=0.001 x1=0.001 r0=0.001 x0=0.001 Length=0.001 units=km
New Line.202171034$202171043 phases=3 Bus1=202171022.1.2.3 Bus2=202171023.1.2.3 switch=y r1=0.001 x1=0.001 r0=0.001 x0=0.001 Length=0.001 units=km
New Line.202171043$202171052 phases=3 Bus1=202171023.1.2.3 Bus2=202171029.1.2.3 switch=y r1=0.001 x1=0.001 r0=0.001 x0=0.001 Length=0.001 units=km
New Line.RSR0601$PDRSR0601-D phases=3 Bus1=242242160.1.2.3 Bus2=242242172.1.2.3 switch=y r1=0.001 x1=0.001 r0=0.001 x0=0.001 Length=0.001 units=km
New Line.236336207 phases=2 Bus1=236336210.1.3 Bus2=236336209.1.3 switch=y r1=0.001 x1=0.001 r0=0.001 x0=0.001 Length=0.001 units=km
New Line.238130026 phases=2 Bus1=238130029.1.3 Bus2=238130028.1.3 switch=y r1=0.001 x1=0.001 r0=0.001 x0=0.001 Length=0.001 units=km
New Line.206855093$PDAR-B phases=3 Bus1=206855053.1.2.3 Bus2=206855041.1.2.3 switch=y r1=0.001 x1=0.001 r0=0.001 x0=0.001 Length=0.001 units=km
New Line.206855093$PDAR-C phases=3 Bus1=206855053.1.2.3 Bus2=206855054.1.2.3 switch=y r1=0.001 x1=0.001 r0=0.001 x0=0.001 Length=0.001 units=km
New Line.206855097$PDAR-C phases=3 Bus1=206855072.1.2.3 Bus2=206855071.1.2.3 switch=y r1=0.001 x1=0.001 r0=0.001 x0=0.001 Length=0.001 units=km
New Line.206855097$PDAR-D phases=3 Bus1=206855071.1.2.3 Bus2=206855047.1.2.3 switch=y r1=0.001 x1=0.001 r0=0.001 x0=0.001 Length=0.001 units=km
New Line.208462511 phases=2 Bus1=208462513.1.3 Bus2=208462514.1.3 switch=y r1=0.001 x1=0.001 r0=0.001 x0=0.001 Length=0.001 units=km
New Line.238129995 phases=2 Bus1=238129997.1.3 Bus2=238129998.1.3 switch=y r1=0.001 x1=0.001 r0=0.001 x0=0.001 Length=0.001 units=km
New Line.188251183 phases=2 Bus1=188251185.1.3 Bus2=188251186.1.3 switch=y r1=0.001 x1=0.001 r0=0.001 x0=0.001 Length=0.001 units=km
New Line.141913955$PDRAR0904-B phases=3 Bus1=141913915.1.2.3 Bus2=141913903.1.2.3 switch=y r1=0.001 x1=0.001 r0=0.001 x0=0.001 Length=0.001 units=km
New Line.141913955$PDRAR0904-C phases=3 Bus1=141913915.1.2.3 Bus2=141913916.1.2.3 switch=y r1=0.001 x1=0.001 r0=0.001 x0=0.001 Length=0.001 units=km
New Line.235529710$PDRSR0700-B phases=3 Bus1=235529670.1.2.3 Bus2=235529658.1.2.3 switch=y r1=0.001 x1=0.001 r0=0.001 x0=0.001 Length=0.001 units=km
New Line.141913959$PDRAR0904-C phases=3 Bus1=141913934.1.2.3 Bus2=141913933.1.2.3 switch=y r1=0.001 x1=0.001 r0=0.001 x0=0.001 Length=0.001 units=km
New Line.98362833 phases=2 Bus1=98362835.1.3 Bus2=98362836.1.3 switch=y r1=0.001 x1=0.001 r0=0.001 x0=0.001 Length=0.001 units=km
New Line.141913959$PDRAR0904-D phases=3 Bus1=141913933.1.2.3 Bus2=141913909.1.2.3 switch=y r1=0.001 x1=0.001 r0=0.001 x0=0.001 Length=0.001 units=km
New Line.166499950 phases=2 Bus1=166499952.1.3 Bus2=166499953.1.3 switch=y r1=0.001 x1=0.001 r0=0.001 x0=0.001 Length=0.001 units=km
New Line.PDRSR0700-B$RSR0700 phases=3 Bus1=235529659.1.2.3 Bus2=235529652.1.2.3 switch=y r1=0.001 x1=0.001 r0=0.001 x0=0.001 Length=0.001 units=km
New Line.246501454$PDRSR0672-B phases=3 Bus1=246501414.1.2.3 Bus2=246501402.1.2.3 switch=y r1=0.001 x1=0.001 r0=0.001 x0=0.001 Length=0.001 units=km
New Line.246501454$PDRSR0672-C phases=3 Bus1=246501414.1.2.3 Bus2=246501415.1.2.3 switch=y r1=0.001 x1=0.001 r0=0.001 x0=0.001 Length=0.001 units=km
New Line.246501458$PDRSR0672-C phases=3 Bus1=246501433.1.2.3 Bus2=246501432.1.2.3 switch=y r1=0.001 x1=0.001 r0=0.001 x0=0.001 Length=0.001 units=km
New Line.5634034:GS1131-1 phases=3 Bus1=202171037.1.2.3 Bus2=202171022.1.2.3 switch=y r1=0.001 x1=0.001 r0=0.001 x0=0.001 Length=0.001 units=km
New Line.5634034:GS1131-2 phases=3 Bus1=202171023.1.2.3 Bus2=202171046.1.2.3 switch=y r1=0.001 x1=0.001 r0=0.001 x0=0.001 Length=0.001 units=km
New Line.5634034:GS1131-3 phases=3 Bus1=202171029.1.2.3 Bus2=202171055.1.2.3 switch=y r1=0.001 x1=0.001 r0=0.001 x0=0.001 Length=0.001 units=km
New Line.940207E:PS0693 phases=3 Bus1=202171296.1.2.3 Bus2=202171291.1.2.3 switch=y r1=0.001 x1=0.001 r0=0.001 x0=0.001 Length=0.001 units=km
New Line.940205E:PS0694 phases=3 Bus1=202171214.1.2.3 Bus2=13028831.1.2.3 switch=y r1=0.001 x1=0.001 r0=0.001 x0=0.001 Length=0.001 units=km enabled=false
New Line.4875443E:PS0995 phases=3 Bus1=239417700.1.2.3 Bus2=239417701.1.2.3 switch=y r1=0.001 x1=0.001 r0=0.001 x0=0.001 Length=0.001 units=km
New Line.4780438E:PS0438 phases=3 Bus1=173213931.1.2.3 Bus2=173213932.1.2.3 switch=y r1=0.001 x1=0.001 r0=0.001 x0=0.001 Length=0.001 units=km
New Line.1317020E:PDRSR0601-D phases=3 Bus1=242242171.1.2.3 Bus2=242242172.1.2.3 switch=y r1=0.001 x1=0.001 r0=0.001 x0=0.001 Length=0.001 units=km
New Line.1441969E:PS0614 phases=3 Bus1=13028866.1.2.3 Bus2=13028865.1.2.3 switch=y r1=0.001 x1=0.001 r0=0.001 x0=0.001 Length=0.001 units=km
New Line.4732299E:PS0955 phases=2 Bus1=240155885.1.3 Bus2=240155884.1.3 switch=y r1=0.001 x1=0.001 r0=0.001 x0=0.001 Length=0.001 units=km
New Line.2344492E:2344492E phases=3 Bus1=13029781.1.2.3 Bus2=13029782.1.2.3 switch=y r1=0.001 x1=0.001 r0=0.001 x0=0.001 Length=0.001 units=km
New Line.4780439E:PSCUST phases=3 Bus1=206855003.1.2.3 Bus2=206855004.1.2.3 switch=y r1=0.001 x1=0.001 r0=0.001 x0=0.001 Length=0.001 units=km
New Line.4780439E:PDAR-B phases=3 Bus1=206855041.1.2.3 Bus2=206855042.1.2.3 switch=y r1=0.001 x1=0.001 r0=0.001 x0=0.001 Length=0.001 units=km
New Line.4780439E:PDAR-C phases=3 Bus1=206855054.1.2.3 Bus2=206855072.1.2.3 switch=y r1=0.001 x1=0.001 r0=0.001 x0=0.001 Length=0.001 units=km enabled=false
New Line.4780439E:PDAR-D phases=3 Bus1=206855047.1.2.3 Bus2=206855048.1.2.3 switch=y r1=0.001 x1=0.001 r0=0.001 x0=0.001 Length=0.001 units=km
New Line.4614513E:PS0615 phases=3 Bus1=13028934.1.2.3 Bus2=13028935.1.2.3 switch=y r1=0.001 x1=0.001 r0=0.001 x0=0.001 Length=0.001 units=km
New Line.940209E:940209E phases=3 Bus1=202171323.1.2.3 Bus2=202171315.1.2.3 switch=y r1=0.001 x1=0.001 r0=0.001 x0=0.001 Length=0.001 units=km
New Line.4875443E:PH443 phases=3 Bus1=209843691.1.2.3 Bus2=209843699.1.2.3 switch=y r1=0.001 x1=0.001 r0=0.001 x0=0.001 Length=0.001 units=km
New Line.4732299E:4732299E phases=2 Bus1=13001295.1.3 Bus2=13001296.1.3 switch=y r1=0.001 x1=0.001 r0=0.001 x0=0.001 Length=0.001 units=km
New Line.4551597E:PS0659 phases=3 Bus1=13029667.1.2.3 Bus2=13029668.1.2.3 switch=y r1=0.001 x1=0.001 r0=0.001 x0=0.001 Length=0.001 units=km
New Line.1761300E:PS0648 phases=3 Bus1=13028907.1.2.3 Bus2=13028906.1.2.3 switch=y r1=0.001 x1=0.001 r0=0.001 x0=0.001 Length=0.001 units=km
New Line.4615300E:PS0957 phases=2 Bus1=238212698.1.3 Bus2=238212699.1.3 switch=y r1=0.001 x1=0.001 r0=0.001 x0=0.001 Length=0.001 units=km
New Line.5708372:P5708372-1 phases=2 Bus1=238129954.1.3 Bus2=238129955.1.3 switch=y r1=0.001 x1=0.001 r0=0.001 x0=0.001 Length=0.001 units=km
New Line.4723137E:PS0993 phases=3 Bus1=239417580.1.2.3 Bus2=239417581.1.2.3 switch=y r1=0.001 x1=0.001 r0=0.001 x0=0.001 Length=0.001 units=km
New Line.940305E:940305ET1 phases=2 Bus1=13029000.1.2 Bus2=13028999.1.2 switch=y r1=0.001 x1=0.001 r0=0.001 x0=0.001 Length=0.001 units=km
New Line.4319904E:PS0958 phases=2 Bus1=238212742.1.3 Bus2=238212743.1.3 switch=y r1=0.001 x1=0.001 r0=0.001 x0=0.001 Length=0.001 units=km
New Line.4615300E:4615300E phases=2 Bus1=102330702.1.3 Bus2=102330703.1.3 switch=y r1=0.001 x1=0.001 r0=0.001 x0=0.001 Length=0.001 units=km
New Line.4319904E:4319904E phases=2 Bus1=13022227.1.3 Bus2=13022228.1.3 switch=y r1=0.001 x1=0.001 r0=0.001 x0=0.001 Length=0.001 units=km
New Line.773519E:773519E phases=3 Bus1=13022142.1.2.3 Bus2=13022143.1.2.3 switch=y r1=0.001 x1=0.001 r0=0.001 x0=0.001 Length=0.001 units=km
New Line.CAB_940389E:940389E phases=3 Bus1=12970787.1.2.3 Bus2=12970769.1.2.3 switch=y r1=0.001 x1=0.001 r0=0.001 x0=0.001 Length=0.001 units=km
New Line.CAB_1997086E:1997086E phases=3 Bus1=13022134.1.2.3 Bus2=13022118.1.2.3 switch=y r1=0.001 x1=0.001 r0=0.001 x0=0.001 Length=0.001 units=km
New Line.CAB_4780439E:4780439EPT phases=3 Bus1=173214048.1.2.3 Bus2=173214031.1.2.3 switch=y r1=0.001 x1=0.001 r0=0.001 x0=0.001 Length=0.001 units=km
New Line.CAB_4970105E:4970105E phases=3 Bus1=239739072.1.2.3 Bus2=239739078.1.2.3 switch=y r1=0.001 x1=0.001 r0=0.001 x0=0.001 Length=0.001 units=km
New Line.CAB_4875450E:4875450E phases=3 Bus1=12986391.1.2.3 Bus2=12986373.1.2.3 switch=y r1=0.001 x1=0.001 r0=0.001 x0=0.001 Length=0.001 units=km
New Line.CAB_940355E:940355E phases=3 Bus1=12970642.1.2.3 Bus2=12970624.1.2.3 switch=y r1=0.001 x1=0.001 r0=0.001 x0=0.001 Length=0.001 units=km
New Line.CAB_940349E:940349E phases=3 Bus1=12970700.1.2.3 Bus2=12970682.1.2.3 switch=y r1=0.001 x1=0.001 r0=0.001 x0=0.001 Length=0.001 units=km
New Line.CAB_4091366E:4091366E phases=3 Bus1=12970843.1.2.3 Bus2=12970827.1.2.3 switch=y r1=0.001 x1=0.001 r0=0.001 x0=0.001 Length=0.001 units=km
New Line.CAB_940336E:940336E phases=3 Bus1=13021528.1.2.3 Bus2=13021510.1.2.3 switch=y r1=0.001 x1=0.001 r0=0.001 x0=0.001 Length=0.001 units=km
New Line.CAB_4254329E:4254329E phases=3 Bus1=13021634.1.2.3 Bus2=13021618.1.2.3 switch=y r1=0.001 x1=0.001 r0=0.001 x0=0.001 Length=0.001 units=km
New Line.CAB_940272E:940272E phases=3 Bus1=13023305.1.2.3 Bus2=13023287.1.2.3 switch=y r1=0.001 x1=0.001 r0=0.001 x0=0.001 Length=0.001 units=km
New Line.CAB_1349306E:1349306E phases=3 Bus1=12971771.1.2.3 Bus2=12971755.1.2.3 switch=y r1=0.001 x1=0.001 r0=0.001 x0=0.001 Length=0.001 units=km
New Line.CAB_1737491E:1737491E phases=3 Bus1=12971821.1.2.3 Bus2=12971805.1.2.3 switch=y r1=0.001 x1=0.001 r0=0.001 x0=0.001 Length=0.001 units=km
New Line.CAB_940305E:940305E phases=3 Bus1=72166879.1.2.3 Bus2=72166862.1.2.3 switch=y r1=0.001 x1=0.001 r0=0.001 x0=0.001 Length=0.001 units=km
New Line.CAB_2175038E:2175038E phases=3 Bus1=256638469.1.2.3 Bus2=256638452.1.2.3 switch=y r1=0.001 x1=0.001 r0=0.001 x0=0.001 Length=0.001 units=km
New Line.CAB_1536379E:1536379E phases=3 Bus1=12970982.1.2.3 Bus2=12970964.1.2.3 switch=y r1=0.001 x1=0.001 r0=0.001 x0=0.001 Length=0.001 units=km
New Line.CAB_1494222E:1494222E phases=3 Bus1=12971896.1.2.3 Bus2=12971880.1.2.3 switch=y r1=0.001 x1=0.001 r0=0.001 x0=0.001 Length=0.001 units=km
New Line.CAB_1349343E:1349343E phases=3 Bus1=12971871.1.2.3 Bus2=12971855.1.2.3 switch=y r1=0.001 x1=0.001 r0=0.001 x0=0.001 Length=0.001 units=km
New Line.CAB_4724516E:4724516E phases=3 Bus1=12999800.1.2.3 Bus2=208280489.1.2.3 switch=y r1=0.001 x1=0.001 r0=0.001 x0=0.001 Length=0.001 units=km
New Line.CAB_1637397E:1637397E phases=3 Bus1=12971011.1.2.3 Bus2=12970993.1.2.3 switch=y r1=0.001 x1=0.001 r0=0.001 x0=0.001 Length=0.001 units=km
New Line.CAB_2164615E:2164615E phases=3 Bus1=13023278.1.2.3 Bus2=13023262.1.2.3 switch=y r1=0.001 x1=0.001 r0=0.001 x0=0.001 Length=0.001 units=km
New Line.CAB_4957346E:4957346E phases=3 Bus1=12972021.1.2.3 Bus2=244343243.1.2.3 switch=y r1=0.001 x1=0.001 r0=0.001 x0=0.001 Length=0.001 units=km
New Line.CAB_1317048E:1317048E phases=3 Bus1=12998114.1.2.3 Bus2=12998098.1.2.3 switch=y r1=0.001 x1=0.001 r0=0.001 x0=0.001 Length=0.001 units=km
New Line.CAB_1400814E:1400814E phases=3 Bus1=12998164.1.2.3 Bus2=12998148.1.2.3 switch=y r1=0.001 x1=0.001 r0=0.001 x0=0.001 Length=0.001 units=km
New Line.CAB_4590655E:4590655E phases=3 Bus1=12987234.1.2.3 Bus2=12987218.1.2.3 switch=y r1=0.001 x1=0.001 r0=0.001 x0=0.001 Length=0.001 units=km
New Line.CAB_4717940E:4717940E phases=3 Bus1=13001033.1.2.3 Bus2=13001017.1.2.3 switch=y r1=0.001 x1=0.001 r0=0.001 x0=0.001 Length=0.001 units=km
New Line.CAB_1710892E:1710892E phases=3 Bus1=13001058.1.2.3 Bus2=13001042.1.2.3 switch=y r1=0.001 x1=0.001 r0=0.001 x0=0.001 Length=0.001 units=km
New Line.CAB_4379279E:4379279E phases=3 Bus1=13022714.1.2.3 Bus2=13022698.1.2.3 switch=y r1=0.001 x1=0.001 r0=0.001 x0=0.001 Length=0.001 units=km
New Line.CAB_4852734E:4852734E phases=3 Bus1=295283388.1.2.3 Bus2=295283371.1.2.3 switch=y r1=0.001 x1=0.001 r0=0.001 x0=0.001 Length=0.001 units=km
New Line.CAB_4448027E:4448027E phases=3 Bus1=96190433.1.2.3 Bus2=96190416.1.2.3 switch=y r1=0.001 x1=0.001 r0=0.001 x0=0.001 Length=0.001 units=km
New Line.CAB_4451277E:4451277E phases=3 Bus1=12970584.1.2.3 Bus2=12970566.1.2.3 switch=y r1=0.001 x1=0.001 r0=0.001 x0=0.001 Length=0.001 units=km
New Line.CAB_1761197E:1761197E phases=3 Bus1=12986102.1.2.3 Bus2=12986086.1.2.3 switch=y r1=0.001 x1=0.001 r0=0.001 x0=0.001 Length=0.001 units=km
New Line.CAB_1941064E:1941064E phases=3 Bus1=12986127.1.2.3 Bus2=12986111.1.2.3 switch=y r1=0.001 x1=0.001 r0=0.001 x0=0.001 Length=0.001 units=km
New Line.CAB_1710844E:1710844E phases=3 Bus1=12986152.1.2.3 Bus2=12986136.1.2.3 switch=y r1=0.001 x1=0.001 r0=0.001 x0=0.001 Length=0.001 units=km
New Line.CAB_1536337E:1536337E phases=3 Bus1=12986339.1.2.3 Bus2=12986323.1.2.3 switch=y r1=0.001 x1=0.001 r0=0.001 x0=0.001 Length=0.001 units=km
New Line.CAB_2344367E:2344367E phases=3 Bus1=12998343.1.2.3 Bus2=12998327.1.2.3 switch=y r1=0.001 x1=0.001 r0=0.001 x0=0.001 Length=0.001 units=km
New Line.CAB_2230356E:2230356E phases=3 Bus1=13001208.1.2.3 Bus2=13001192.1.2.3 switch=y r1=0.001 x1=0.001 r0=0.001 x0=0.001 Length=0.001 units=km
New Line.CAB_1761192E:1761192E phases=3 Bus1=13023665.1.2.3 Bus2=13023649.1.2.3 switch=y r1=0.001 x1=0.001 r0=0.001 x0=0.001 Length=0.001 units=km
New Line.CAB_4875447E:4875447E phases=3 Bus1=257629444.1.2.3 Bus2=257629427.1.2.3 switch=y r1=0.001 x1=0.001 r0=0.001 x0=0.001 Length=0.001 units=km
New Line.CAB_1737468E:1737468E phases=3 Bus1=12986177.1.2.3 Bus2=12986161.1.2.3 switch=y r1=0.001 x1=0.001 r0=0.001 x0=0.001 Length=0.001 units=km
New Line.CAB_1941015E:1941015E phases=3 Bus1=12988938.1.2.3 Bus2=12988922.1.2.3 switch=y r1=0.001 x1=0.001 r0=0.001 x0=0.001 Length=0.001 units=km
New Line.CAB_1144699E:1144699E phases=3 Bus1=12989063.1.2.3 Bus2=12989047.1.2.3 switch=y r1=0.001 x1=0.001 r0=0.001 x0=0.001 Length=0.001 units=km
New Line.CAB_4781888E:4781888E phases=3 Bus1=12989167.1.2.3 Bus2=12989151.1.2.3 switch=y r1=0.001 x1=0.001 r0=0.001 x0=0.001 Length=0.001 units=km
New Line.CAB_1317023E:1317023E phases=3 Bus1=12999102.1.2.3 Bus2=12999084.1.2.3 switch=y r1=0.001 x1=0.001 r0=0.001 x0=0.001 Length=0.001 units=km
New Line.CAB_1584462E:1584462E phases=3 Bus1=13021557.1.2.3 Bus2=13021539.1.2.3 switch=y r1=0.001 x1=0.001 r0=0.001 x0=0.001 Length=0.001 units=km
New Line.CAB_4082593E:4082593E phases=3 Bus1=13001233.1.2.3 Bus2=13001217.1.2.3 switch=y r1=0.001 x1=0.001 r0=0.001 x0=0.001 Length=0.001 units=km
New Line.CAB_1710973E:1710973E phases=3 Bus1=220548556.1.2.3 Bus2=220548539.1.2.3 switch=y r1=0.001 x1=0.001 r0=0.001 x0=0.001 Length=0.001 units=km
New Line.CAB_4451279E:4451279E phases=3 Bus1=12970816.1.2.3 Bus2=12970798.1.2.3 switch=y r1=0.001 x1=0.001 r0=0.001 x0=0.001 Length=0.001 units=km
New Line.CAB_4252835E:4252835E phases=3 Bus1=12986202.1.2.3 Bus2=12986186.1.2.3 switch=y r1=0.001 x1=0.001 r0=0.001 x0=0.001 Length=0.001 units=km
New Line.CAB_1637440E:1637440E phases=3 Bus1=12986955.1.2.3 Bus2=12986939.1.2.3 switch=y r1=0.001 x1=0.001 r0=0.001 x0=0.001 Length=0.001 units=km
New Line.CAB_765732E:765732E phases=3 Bus1=12988838.1.2.3 Bus2=12988822.1.2.3 switch=y r1=0.001 x1=0.001 r0=0.001 x0=0.001 Length=0.001 units=km
New Line.CAB_4605402E:4605402E phases=3 Bus1=147886198.1.2.3 Bus2=147886179.1.2.3 switch=y r1=0.001 x1=0.001 r0=0.001 x0=0.001 Length=0.001 units=km
New Line.CAB_1019049E:1019049E phases=3 Bus1=12970868.1.2.3 Bus2=12970852.1.2.3 switch=y r1=0.001 x1=0.001 r0=0.001 x0=0.001 Length=0.001 units=km
New Line.CAB_4403820E:4403820E phases=3 Bus1=168644066.1.2.3 Bus2=168644049.1.2.3 switch=y r1=0.001 x1=0.001 r0=0.001 x0=0.001 Length=0.001 units=km
New Line.CAB_4254466E:4254466E phases=3 Bus1=13021584.1.2.3 Bus2=13021568.1.2.3 switch=y r1=0.001 x1=0.001 r0=0.001 x0=0.001 Length=0.001 units=km
New Line.CAB_4254465E:4254465E phases=3 Bus1=13021659.1.2.3 Bus2=13021643.1.2.3 switch=y r1=0.001 x1=0.001 r0=0.001 x0=0.001 Length=0.001 units=km
New Line.CAB_4254468E:4254468E phases=3 Bus1=13021609.1.2.3 Bus2=13021593.1.2.3 switch=y r1=0.001 x1=0.001 r0=0.001 x0=0.001 Length=0.001 units=km
New Line.CAB_4782656E:4782656E phases=3 Bus1=13021684.1.2.3 Bus2=13021668.1.2.3 switch=y r1=0.001 x1=0.001 r0=0.001 x0=0.001 Length=0.001 units=km
New Line.CAB_1349416E:1349416E phases=3 Bus1=12997989.1.2.3 Bus2=12997973.1.2.3 switch=y r1=0.001 x1=0.001 r0=0.001 x0=0.001 Length=0.001 units=km
New Line.CAB_1617417E:1617417E phases=3 Bus1=13001375.1.2.3 Bus2=13001359.1.2.3 switch=y r1=0.001 x1=0.001 r0=0.001 x0=0.001 Length=0.001 units=km
New Line.CAB_1902769E:1902769E phases=3 Bus1=12986443.1.2.3 Bus2=12986427.1.2.3 switch=y r1=0.001 x1=0.001 r0=0.001 x0=0.001 Length=0.001 units=km
New Line.CAB_4590654E:4590654E phases=3 Bus1=12986930.1.2.3 Bus2=12986914.1.2.3 switch=y r1=0.001 x1=0.001 r0=0.001 x0=0.001 Length=0.001 units=km
New Line.CAB_1710975E:1710975E phases=3 Bus1=12987259.1.2.3 Bus2=12987243.1.2.3 switch=y r1=0.001 x1=0.001 r0=0.001 x0=0.001 Length=0.001 units=km
New Line.CAB_1584365E:1584365E phases=3 Bus1=12987684.1.2.3 Bus2=12987668.1.2.3 switch=y r1=0.001 x1=0.001 r0=0.001 x0=0.001 Length=0.001 units=km
New Line.CAB_773518E:773518E phases=3 Bus1=12988488.1.2.3 Bus2=12988472.1.2.3 switch=y r1=0.001 x1=0.001 r0=0.001 x0=0.001 Length=0.001 units=km
New Line.CAB_895976E:895976E phases=3 Bus1=12988863.1.2.3 Bus2=12988847.1.2.3 switch=y r1=0.001 x1=0.001 r0=0.001 x0=0.001 Length=0.001 units=km
New Line.CAB_2261412E:2261412E phases=3 Bus1=12988963.1.2.3 Bus2=12988947.1.2.3 switch=y r1=0.001 x1=0.001 r0=0.001 x0=0.001 Length=0.001 units=km
New Line.CAB_1342729E:1342729E phases=3 Bus1=12988988.1.2.3 Bus2=12988972.1.2.3 switch=y r1=0.001 x1=0.001 r0=0.001 x0=0.001 Length=0.001 units=km
New Line.CAB_4254319E:4254319E phases=3 Bus1=13023615.1.2.3 Bus2=13023599.1.2.3 switch=y r1=0.001 x1=0.001 r0=0.001 x0=0.001 Length=0.001 units=km
New Line.CAB_1144663E:1144663E phases=3 Bus1=12970895.1.2.3 Bus2=12970877.1.2.3 switch=y r1=0.001 x1=0.001 r0=0.001 x0=0.001 Length=0.001 units=km
New Line.CAB_4254324E:4254324E phases=3 Bus1=13021709.1.2.3 Bus2=13021693.1.2.3 switch=y r1=0.001 x1=0.001 r0=0.001 x0=0.001 Length=0.001 units=km
New Line.CAB_4254314E:4254314E phases=3 Bus1=13021734.1.2.3 Bus2=13021718.1.2.3 switch=y r1=0.001 x1=0.001 r0=0.001 x0=0.001 Length=0.001 units=km
New Line.CAB_4254320E:4254320E phases=3 Bus1=13021784.1.2.3 Bus2=13021768.1.2.3 switch=y r1=0.001 x1=0.001 r0=0.001 x0=0.001 Length=0.001 units=km
New Line.CAB_4254473E:4254473E phases=3 Bus1=13021759.1.2.3 Bus2=13021743.1.2.3 switch=y r1=0.001 x1=0.001 r0=0.001 x0=0.001 Length=0.001 units=km
New Line.CAB_4606620E:4606620E phases=3 Bus1=12998014.1.2.3 Bus2=12997998.1.2.3 switch=y r1=0.001 x1=0.001 r0=0.001 x0=0.001 Length=0.001 units=km
New Line.CAB_2275332E:2275332E phases=3 Bus1=13001425.1.2.3 Bus2=13001409.1.2.3 switch=y r1=0.001 x1=0.001 r0=0.001 x0=0.001 Length=0.001 units=km
New Line.CAB_1799188E:1799188E phases=3 Bus1=13001956.1.2.3 Bus2=13001938.1.2.3 switch=y r1=0.001 x1=0.001 r0=0.001 x0=0.001 Length=0.001 units=km
New Line.CAB_2163446E:2163446E phases=3 Bus1=13020401.1.2.3 Bus2=13020385.1.2.3 switch=y r1=0.001 x1=0.001 r0=0.001 x0=0.001 Length=0.001 units=km
New Line.CAB_2261282E:2261282E phases=3 Bus1=13020426.1.2.3 Bus2=13020410.1.2.3 switch=y r1=0.001 x1=0.001 r0=0.001 x0=0.001 Length=0.001 units=km
New Line.CAB_4180811E:4180811E phases=3 Bus1=12986418.1.2.3 Bus2=12986402.1.2.3 switch=y r1=0.001 x1=0.001 r0=0.001 x0=0.001 Length=0.001 units=km
New Line.CAB_1617421E:1617421E phases=3 Bus1=12986905.1.2.3 Bus2=12986889.1.2.3 switch=y r1=0.001 x1=0.001 r0=0.001 x0=0.001 Length=0.001 units=km
New Line.CAB_1828591E:1828591E phases=3 Bus1=12987284.1.2.3 Bus2=12987268.1.2.3 switch=y r1=0.001 x1=0.001 r0=0.001 x0=0.001 Length=0.001 units=km
New Line.CAB_730883E:730883E phases=3 Bus1=12989038.1.2.3 Bus2=12989022.1.2.3 switch=y r1=0.001 x1=0.001 r0=0.001 x0=0.001 Length=0.001 units=km
New Line.CAB_1342733E:1342733E phases=3 Bus1=13020993.1.2.3 Bus2=13020977.1.2.3 switch=y r1=0.001 x1=0.001 r0=0.001 x0=0.001 Length=0.001 units=km
New Line.CAB_4289576E:4289576E phases=3 Bus1=13022877.1.2.3 Bus2=13022861.1.2.3 switch=y r1=0.001 x1=0.001 r0=0.001 x0=0.001 Length=0.001 units=km
New Line.CAB_4389232E:4389232E phases=3 Bus1=13022902.1.2.3 Bus2=13022886.1.2.3 switch=y r1=0.001 x1=0.001 r0=0.001 x0=0.001 Length=0.001 units=km
New Line.CAB_1144518E:1144518E phases=3 Bus1=12971746.1.2.3 Bus2=12971730.1.2.3 switch=y r1=0.001 x1=0.001 r0=0.001 x0=0.001 Length=0.001 units=km
New Line.CAB_1144667E:1144667E phases=3 Bus1=13021499.1.2.3 Bus2=13021481.1.2.3 switch=y r1=0.001 x1=0.001 r0=0.001 x0=0.001 Length=0.001 units=km
New Line.CAB_1144671E:1144671E phases=3 Bus1=12970924.1.2.3 Bus2=12970906.1.2.3 switch=y r1=0.001 x1=0.001 r0=0.001 x0=0.001 Length=0.001 units=km
New Line.CAB_2164771E:2164771E phases=3 Bus1=12971796.1.2.3 Bus2=12971780.1.2.3 switch=y r1=0.001 x1=0.001 r0=0.001 x0=0.001 Length=0.001 units=km
New Line.CAB_1799340E:1799340E phases=3 Bus1=13021372.1.2.3 Bus2=13021356.1.2.3 switch=y r1=0.001 x1=0.001 r0=0.001 x0=0.001 Length=0.001 units=km
New Line.CAB_4796697E:4796697E phases=3 Bus1=12970953.1.2.3 Bus2=12970935.1.2.3 switch=y r1=0.001 x1=0.001 r0=0.001 x0=0.001 Length=0.001 units=km
New Line.CAB_1637379E:1637379E phases=3 Bus1=12971721.1.2.3 Bus2=12971705.1.2.3 switch=y r1=0.001 x1=0.001 r0=0.001 x0=0.001 Length=0.001 units=km
New Line.CAB_934678E:934678E phases=3 Bus1=12986499.1.2.3 Bus2=12986481.1.2.3 switch=y r1=0.001 x1=0.001 r0=0.001 x0=0.001 Length=0.001 units=km
New Line.CAB_1637362E:1637362E phases=3 Bus1=12986980.1.2.3 Bus2=12986964.1.2.3 switch=y r1=0.001 x1=0.001 r0=0.001 x0=0.001 Length=0.001 units=km
New Line.CAB_1828593E:1828593E phases=3 Bus1=12987309.1.2.3 Bus2=12987293.1.2.3 switch=y r1=0.001 x1=0.001 r0=0.001 x0=0.001 Length=0.001 units=km
New Line.CAB_1349342E:1349342E phases=3 Bus1=12971846.1.2.3 Bus2=12971830.1.2.3 switch=y r1=0.001 x1=0.001 r0=0.001 x0=0.001 Length=0.001 units=km
New Line.CAB_1584123E:1584123E phases=3 Bus1=12971946.1.2.3 Bus2=12971930.1.2.3 switch=y r1=0.001 x1=0.001 r0=0.001 x0=0.001 Length=0.001 units=km
New Line.CAB_2123353E:2123353E phases=3 Bus1=12972048.1.2.3 Bus2=12972030.1.2.3 switch=y r1=0.001 x1=0.001 r0=0.001 x0=0.001 Length=0.001 units=km
New Line.CAB_1662832E:1662832E phases=3 Bus1=12988888.1.2.3 Bus2=12988872.1.2.3 switch=y r1=0.001 x1=0.001 r0=0.001 x0=0.001 Length=0.001 units=km
New Line.CAB_4615297E:4615297E phases=3 Bus1=12998039.1.2.3 Bus2=12998023.1.2.3 switch=y r1=0.001 x1=0.001 r0=0.001 x0=0.001 Length=0.001 units=km
New Line.CAB_2197701E:2197701E phases=3 Bus1=12998064.1.2.3 Bus2=12998048.1.2.3 switch=y r1=0.001 x1=0.001 r0=0.001 x0=0.001 Length=0.001 units=km
New Line.CAB_4782654E:4782654E phases=3 Bus1=13001008.1.2.3 Bus2=13000992.1.2.3 switch=y r1=0.001 x1=0.001 r0=0.001 x0=0.001 Length=0.001 units=km
New Line.CAB_773520E:773520E phases=3 Bus1=13022401.1.2.3 Bus2=13022385.1.2.3 switch=y r1=0.001 x1=0.001 r0=0.001 x0=0.001 Length=0.001 units=km
New Line.CAB_1902957E:1902957E phases=3 Bus1=13023536.1.2.3 Bus2=13023520.1.2.3 switch=y r1=0.001 x1=0.001 r0=0.001 x0=0.001 Length=0.001 units=km
New Line.CAB_4091253E:4091253E phases=3 Bus1=13028601.1.2.3 Bus2=13028585.1.2.3 switch=y r1=0.001 x1=0.001 r0=0.001 x0=0.001 Length=0.001 units=km
New Line.CAB_4614713E:4614713E phases=3 Bus1=94905011.1.2.3 Bus2=94904994.1.2.3 switch=y r1=0.001 x1=0.001 r0=0.001 x0=0.001 Length=0.001 units=km
New Line.CAB_4451291E:4451291E phases=3 Bus1=13021245.1.2.3 Bus2=13021227.1.2.3 switch=y r1=0.001 x1=0.001 r0=0.001 x0=0.001 Length=0.001 units=km
New Line.CAB_940306E:940306E phases=3 Bus1=13021272.1.2.3 Bus2=13021256.1.2.3 switch=y r1=0.001 x1=0.001 r0=0.001 x0=0.001 Length=0.001 units=km
New Line.CAB_1584125E:1584125E phases=3 Bus1=12971921.1.2.3 Bus2=12971905.1.2.3 switch=y r1=0.001 x1=0.001 r0=0.001 x0=0.001 Length=0.001 units=km
New Line.CAB_2072231E:2072231E phases=3 Bus1=12971971.1.2.3 Bus2=12971955.1.2.3 switch=y r1=0.001 x1=0.001 r0=0.001 x0=0.001 Length=0.001 units=km
New Line.CAB_2072230E:2072230E phases=3 Bus1=12971996.1.2.3 Bus2=12971980.1.2.3 switch=y r1=0.001 x1=0.001 r0=0.001 x0=0.001 Length=0.001 units=km
New Line.CAB_1941193E:1941193E phases=3 Bus1=12972075.1.2.3 Bus2=12972059.1.2.3 switch=y r1=0.001 x1=0.001 r0=0.001 x0=0.001 Length=0.001 units=km
New Line.CAB_1284653E:1284653E phases=3 Bus1=12972125.1.2.3 Bus2=12972109.1.2.3 switch=y r1=0.001 x1=0.001 r0=0.001 x0=0.001 Length=0.001 units=km
New Line.CAB_1941090E:1941090E phases=3 Bus1=13021193.1.2.3 Bus2=13021177.1.2.3 switch=y r1=0.001 x1=0.001 r0=0.001 x0=0.001 Length=0.001 units=km
New Line.CAB_1536383E:1536383E phases=3 Bus1=13021422.1.2.3 Bus2=13021406.1.2.3 switch=y r1=0.001 x1=0.001 r0=0.001 x0=0.001 Length=0.001 units=km
New Line.CAB_70899CTC:70899CTC phases=3 Bus1=13028488.1.2.3 Bus2=13028472.1.2.3 switch=y r1=0.001 x1=0.001 r0=0.001 x0=0.001 Length=0.001 units=km
...

! Loads
New Load.1737374E_0 Bus1=-99999913001243.1.0 phases=1 kV=0.069282 kW=0 kvar=0 model=1
New Load.1737374E_1 Bus1=-99999913001243.2.0 phases=1 kV=0.069282 kW=0 kvar=0 model=1
New Load.940355E_0 Bus1=-99999912970625.1.0 phases=1 kV=0.069282 kW=0 kvar=0 model=1
New Load.940355E_1 Bus1=-99999912970625.2.0 phases=1 kV=0.069282 kW=0 kvar=0 model=1
...